[1] David Abramson, Jonathan Giddy, and Lew Kotler. 2000. High performance
parametric modeling with Nimrod/G: Killer application for the global grid?. In
Parallel and Distributed Processing Symposium, 2000. IPDPS 2000. Proceedings. 14th
International. IEEE, 520–528.
[2] B.M. Adams, L.E. Bauman, W.J. Bohnhoff, K.R. Dalbey, M.S. Ebeida, J.P. Eddy, M.S.
Eldred, Hough P.D., K.T. Hu, J.D. Jakeman, J.A. Stephens, L.P. Swiler, D.M. Vigil,
and T.M. Wildey. 2014. Dakota, A Multilevel Parallel Object-Oriented Framework
for Design Optimization, Parameter Estimation, Uncertainty Quantification, and
Sensitivity Analysis: Version 6.0 Theory Manual. Sandia National Laboratories,
Tech. Rep. SAND2014-4253 (2014).
[3] Frédéric Archambeau, Namane Méchitoua, and Marc Sakiz. 2004. Code_Saturne:
a Finite Volume Code for the Computation of Turbulent Incompressible Flows.
International Journal on Finite Volumes 1 (2004).
[4] M. Baudin, K. Boumhaout, T. Delage, B. Iooss, and J-M. Martinez. 2016. Numerical stability of Sobol’ indices estimation formula. In Proceedings of the 8th
International Conference on Sensitivity Analysis of Model Output (SAMO 2016). Le
Tampon, Réunion Island, France.
[5] M. Baudin, A. Dutfoy, B. Iooss, and A-L. Popelin. 2017. Open TURNS: An
industrial software for uncertainty quantification in simulation. In Springer
Handbook on Uncertainty Quantification, R. Ghanem, D. Higdon, and H. Owhadi
(Eds.). Springer.
[6] J. Bect, D. Ginsbourger, L. Li, V. Picheny, and E. Vazquez. 2012. Sequential design
of computer experiments for the estimation of a probability of failure. Statistics
and Computing 22 (2012), 773–793.
[7] Janine Bennett, Ray Grout, Philippe Pébay, Diana Roe, and David Thompson.
2009. Numerically stable, single-pass, parallel statistics algorithms. In Cluster
Computing and Workshops, 2009. CLUSTER’09. IEEE International Conference on.
IEEE, 1–8.
[8] Janine C Bennett, Hasan Abbasi, Peer-Timo Bremer, Ray Grout, Attila Gyulassy,
Tong Jin, Scott Klasky, Hemanth Kolla, Manish Parashar, Valerio Pascucci, and
others. 2012. Combining in-situ and in-transit processing to enable extremescale scientic analysis. In High Performance Computing, Networking, Storage
and Analysis (SC), 2012 International Conference for. IEEE, 1–9.
[9] Janine C Bennett, Vaidyanathan Krishnamoorthy, Shusen Liu, Ray W Grout,
Evatt R Hawkes, Jacqueline H Chen, Jason Shepherd, Valerio Pascucci, and PeerTimo Bremer. 2011. Feature-based statistical analysis of combustion simulation
data. IEEE transactions on visualization and computer graphics 17, 12 (2011),
1822–1831.
[10] D.G. Cacuci. 2003. Sensitivity and uncertainty analysis - Theory. Chapman &
Hall/CRC.
[11] Tony F Chan, Gene Howard Golub, and Randall J LeVeque. 1982. Updating formulae and a pairwise algorithm for computing sample variances. In COMPSTAT
1982 5th Symposium held at Toulouse 1982. Springer, 30–41.
[12] Ewa Deelman, Karan Vahi, Gideon Juve, Mats Rynge, Scott Callaghan, Philip J
Maechling, Rajiv Mayani, Weiwei Chen, Rafael Ferreira da Silva, Miron Livny,
and Kent Wenger. 2015. Pegasus: a Workow Management System for Science
Automation. Future Generation Computer Systems 46 (2015), 17–35.
[13] Matthieu Dorier, Gabriel Antoniu, Franck Cappello, Marc Snir, and Leigh Orf.
2012. Damaris: How to Eciently Leverage Multicore Parallelism to Achieve
Scalable, Jitter-free I/O. In CLUSTER - IEEE International Conference on Cluster
Computing. IEEE.
[14] Matthieu Dreher and Bruno Ran. 2014. A Flexible Framework for Asynchronous
In Situ and In Transit Analytics for Scientic Simulations. In 14th IEEE/ACM
International Symposium on Cluster, Cloud and Grid Computing (CCGrid’14). IEEE,
Chicago. https://hal.inria.fr/hal-00941413
[15] Tony Finch. 2009. Incremental calculation of weighted mean and variance. Technical Report. University of Cambridge. 11–5 pages.
[16] Y. Fournier, J. Bonelle, C. Moulinec, Z. Shang, A.G. Sunderland, and J.C. Uribe.
2011. Optimizing Code_Saturne computations on Petascale systems. Computers
& Fluids 45, 1 (2011), 103 – 108. 22nd International Conference on Parallel
Computational Fluid Dynamics (ParCFD 2010)ParCFD.
[17] F. Gamboa, A. Janon, T. Klein, and A. Lagnoux. 2014. Sensitivity analysis for
multidimensional and functional outputs. Electronic Journal of Statistics 8, 1
(2014), 575–603.
[18] L. Gilquin, E. Arnaud, C. Prieur, and H. Monod. 2017. Recursive estimation
procedure of Sobol’ indices based on replicated designs. Submitted, http://hal.univgrenoble-alpes.fr/hal-01291769 (2017).
[19] D. Higdon, J. Gattiker, B. Williams, and M. Rightley. 2008. Computer model
calibration using high-dimensional output. J. Amer. Statist. Assoc. 103 (2008),
571–583.
[20] Pieter Hintjens. 2013. ZeroMQ, Messaging for Many Applications. O’Reilly Media.
[21] T. Homma and A. Saltelli. 1996. Importance measures in global sensitivity
analysis of non linear models. Reliability Engineering and System Safety 52 (1996),
1–17.
[22] B. Iooss and P. Lemaître. 2015. A review on global sensitivity analysis methods.
In Uncertainty management in Simulation-Optimization of Complex Systems:
Algorithms and Applications, C. Meloni and G. Dellino (Eds.). Springer, 101–122.
[23] B. Iooss, F. Van Dorpe, and N. Devictor. 2006. Response surfaces and sensitivity
analyses for an environmental model of dose calculations. Reliability Engineering
and System Safety 91 (2006), 1241–1251.
[24] A. Janon, T. Klein, A. Lagnoux, M. Nodet, and C. Prieur. 2014. Asymptotic
normality and eciency of two Sobol index estimators. ESAIM: Probability and
Statistics 18 (2014), 342–364.
[25] Sriram Lakshminarasimhan, John Jenkins, Isha Arkatkar, Zhenhuan Gong, Hemanth Kolla, Seung-Hoe Ku, Stephane Ethier, Jackie Chen, Choong-Seock Chang,
Scott Klasky, and others. 2011. ISABELA-QA: query-driven analytics with
ISABELA-compressed extreme-scale scientic data. In Proceedings of 2011 International Conference for High Performance Computing, Networking, Storage and
Analysis. ACM, 31.
[26] Paolo Lampitella, Fabio Inzoli, and Emanuela Colombo. 2015. Note on a Formula
for One-pass, Parallel Computations of Arbitrary-order, Weighted, Multivariate
Central Moments. (2015).
[27] Steven H. Langer, Brian Spears, J. Luc Peterson, John E. Field, Ryan Nora, and
Scott Brandon. 2016. A HYDRA UQ Workow for NIF Ignition Experiments. In
Proceedings of the 2Nd Workshop on In Situ Infrastructures for Enabling Extremescale Analysis and Visualization (ISAV ’16). IEEE Press, Piscataway, NJ, USA,
1–6.
[28] L. Le Gratiet, S. Marelli, and B. Sudret. 2017. Metamodel-Based Sensitivity
Analysis: Polynomial Chaos Expansions and Gaussian Processes. In Springer
Handbook on Uncertainty Quantication, R. Ghanem, D. Higdon, and H. Owhadi
(Eds.). Springer.
[29] Stefano Marelli and Bruno Sudret. 2014. UQLab: a framework for uncertainty
quantication in MATLAB. In Vulnerability, Uncertainty, and Risk: Quantication,
Mitigation, and Management. 2554–2563.
[30] A. Marrel and M. De Lozzo. 2017. Sensitivity analysis with dependence and
variance-based measures for spatio-temporal numerical simulators. Stochastic
Environmental Research and Risk Assessment, In Press (2017).
[31] A. Marrel, B. Iooss, M. Jullien, B. Laurent, and E. Volkova. 2011. Global sensitivity
analysis for models with spatially dependent outputs. Environmetrics 22 (2011),
383–397.
[32] A. Marrel, N. Perot, and C. Mottet. 2015. Development of a surrogate model
and sensitivity analysis for spatio-temporal numerical simulators. Stochastic
Environmental Research and Risk Assessment 29 (2015), 959–974.
[33] A. Marrel and N. Saint-Geours. 2017. Sensitivity Analysis of Spatial and/or Temporal Phenomena. In Springer Handbook on Uncertainty Quantication, R. Ghanem,
D. Higdon, and H. Owhadi (Eds.). Springer.
[34] Philippe Pébay. 2008. Formulas for robust, one-pass parallel computation of
covariances and arbitrary-order statistical moments. Sandia Report SAND2008-
6212, Sandia National Laboratories 94 (2008).
[35] P. Pebay, D. Thompson, and J. Bennett. 2010. Computing Contingency Statistics
in Parallel: Design Trade-Os and Limiting Cases. In 2010 IEEE International
Conference on Cluster Computing. 156–165.
[36] Philippe Pébay, David Thompson, Janine Bennett, and Ajith Mascarenhas. 2011.
Design and performance of a scalable, parallel statistics toolkit. In Parallel and
Distributed Processing Workshops and Phd Forum (IPDPSW), 2011 IEEE International Symposium on. IEEE, 1475–1484.
[37] Fabian Pedregosa, Gaël Varoquaux, Alexandre Gramfort, Vincent Michel,
Bertrand Thirion, Olivier Grisel, Mathieu Blondel, Peter Prettenhofer, Ron Weiss,
Vincent Dubourg, and others. 2011. Scikit-learn: Machine learning in Python.
Journal of Machine Learning Research 12, Oct (2011), 2825–2830.
[38] C. Prieur and S. Tarantola. 2017. Variance-Based Sensitivity Analysis: Theory
and Estimation Algorithms. In Springer Handbook on Uncertainty Quantication,
R. Ghanem, D. Higdon, and H. Owhadi (Eds.). Springer.
[39] S. Pronk, G. R. Bowman, B. Hess, P. Larsson, I. S. Haque, V. S. Pande, I. Pouya, K.
Beauchamp, P. M. Kasson, and E. Lindahl. 2011. Copernicus: A new paradigm
for parallel adaptive molecular dynamics. In 2011 International Conference for
High Performance Computing, Networking, Storage and Analysis (SC). 1–10. DOI:
https://doi.org/10.1145/2063384.2063465
[40] Melissa Romanus, Fan Zhang, Tong Jin, Qian Sun, Hoang Bui, Manish Parashar,
Jong Choi, Saloman Janhunen, Robert Hager, Scott Klasky, Choong-Seock Chang,
and Ivan Rodero. 2016. Persistent Data Staging Services for Data Intensive Insitu Scientic Workows. In Proceedings of the ACM International Workshop on
Data-Intensive Distributed Computing (DIDC ’16). ACM, New York, NY, USA,
37–44.
[41] A. Saltelli, K. Chan, and E.M. Scott (Eds.). 2000. Sensitivity analysis. Wiley.
[42] R.C. Smith. 2014. Uncertainty quantication. SIAM.
[43] I.M. Sobol. 1993. Sensitivity estimates for non linear mathematical models.
Mathematical Modelling and Computational Experiments 1 (1993), 407–414.
[44] Théophile Terraz, Bruno Ran, Alejandro Ribes, and Yvan Fournier. 2016. In Situ
Statistical Analysis for Parametric Studies. In Proceedings of the Second Workshop
on In Situ Infrastructures for Enabling Extreme-Scale Analysis and Visualization
(ISAV2016). ACM, 5.
[45] Douglas Thain, Todd Tannenbaum, and Miron Livny. 2005. Distributed computing in practice: the Condor experience. Concurrency - Practice and Experience 17,
2-4 (2005), 323–356.
[46] Tiankai Tu, Charles A. Rendleman, David W. Borhani, Ron O. Dror, Justin
Gullingsrud, Morten Ø. Jensen, John L. Klepeis, Paul Maragakis, Patrick Miller,
Kate A. Staord, and David E. Shaw. 2008. A Scalable Parallel Framework for
Analyzing Terascale Molecular Dynamics Simulation Trajectories. In Conference
on Supercomputing. Article 56, 12 pages.
[47] E. Volkova, B. Iooss, and F. Van Dorpe. 2008. Global sensitivity analysis for a
numerical model of radionuclide migration from the RRC "Kurchatov Institute"
radwaste disposal site. Stochastic Environmental Research and Risk Assesment 22
(2008), 17–31.
[48] BP Welford. 1962. Note on a method for calculating corrected sums of squares
and products. Technometrics 4, 3 (1962), 419–420.
[49] F. Zheng, H. Zou, G. Eisnhauer, K. Schwan, M. Wolf, J. Dayal, T. A. Nguyen, J.
Cao, H. Abbasi, S. Klasky, N. Podhorszki, and H. Yu. 2013. FlexIO: I/O middleware
for Location-Flexible Scientic Data Analytics. In IPDPS’13.
